#
# Copyright 2016 National Renewable Energy Laboratory
#
# Licensed under the Apache License, Version 2.0 (the "License");
# you may not use this file except in compliance with the License.
# You may obtain a copy of the License at
#
#     http://www.apache.org/licenses/LICENSE-2.0
#
# Unless required by applicable law or agreed to in writing, software
# distributed under the License is distributed on an "AS IS" BASIS,
# WITHOUT WARRANTIES OR CONDITIONS OF ANY KIND, either express or implied.
# See the License for the specific language governing permissions and
# limitations under the License.
#

generate_f90_types(src/Registry-AD14.txt AeroDyn14_Types.f90)
generate_f90_types(src/Registry-DWM.txt DWM_Types.f90)

set(AD14_LIBS_SOURCES
  src/AeroDyn14.f90
  src/AeroSubs.f90
  src/MOD_MultTurb_Params.f90
  src/MOD_FileManip.f90
  src/DWM.f90
  src/DWM_Wake_Sub_ver2.f90
  src/GenSubs.f90
  src/BiotSavart.f90
  src/Circulation.f90
  src/FVW_COMPUTE_WAKE.f90
  src/FVWMods.f90
  src/FVW_Setup.f90
  src/FVWtest.f90
  #src/FVW_Types.f90
  src/MOD_MathOps.f90
  src/TransformCoords.f90
  src/Vinduced2OLD.f90
  src/Vinduced2PRIME.f90
  src/Vinduced3.f90
  src/VinducedBC.f90
  src/VinducedFW3.f90
  src/VinducedFWOLD.f90
  src/VinducedFWPRIME.f90
  src/VinducedNW.f90


  # Generated files
  AeroDyn14_Types.f90
  DWM_Types.f90
)

add_library(aerodyn14lib ${AD14_LIBS_SOURCES})
target_link_libraries(aerodyn14lib ifwlib nwtclibs)

install(TARGETS aerodyn14lib
  EXPORT "${CMAKE_PROJECT_NAME}Libraries"
  RUNTIME DESTINATION bin
  LIBRARY DESTINATION lib
  ARCHIVE DESTINATION lib)

set(DWM_SOURCES
  src/DWM_driver_wind_farm_mod.f90
  src/DWM_driver_wind_farm_sub.f90
  src/DWM_driver_wind_farm.f90
)

add_executable(dwm_driver_wind_farm ${DWM_SOURCES})
target_link_libraries(dwm_driver_wind_farm aerodyn14lib)

install(TARGETS dwm_driver_wind_farm
  RUNTIME DESTINATION bin
  LIBRARY DESTINATION lib
  ARCHIVE DESTINATION lib)
